[General]
network = Computer
sim-time-limit = 100s
**.vector-recording = true
seed-set = ${repetition}
num-rngs = 3
repeat = 3

[Default]
**.cpu*.IOPercentageCPUbound = 0.2
**.cpu*.IOPercentageIObound = 0.8
**.processGenerator.meanGenerationTime = 3s
**.processGenerator.meanProcessDuration = 1s

[Sim1]
extends = Default
**.Computer.numCpus = ${1,2,3,4,5,6,7,8,9,10,11,12}
**.processGenerator.p_bound = ${0,0.1,0.2,0.3,0.4,0.5,0.6,0.7,0.8,0.9,1}
**.scheduler.isFCFS = ${true,false}

        
