[General]
network = Computer
sim-time-limit = 1000s
**.vector-recording = true
seed-set = ${repetition}
num-rngs = 3
repeat = 1

[Default]
**.processGenerator.IOPercentageCPUbound = 0.2
**.processGenerator.IOPercentageIObound = 0.8
**.processGenerator.meanGenerationTime = 0.1s
**.processGenerator.meanProcessDuration = 0.3s

[Sim1]
extends = Default
repeat = 3
**.numCpus = ${1,2,3,4,5,6,7,8,9,10,11,12}
**.processGenerator.p_cpu_bound = ${0,0.1,0.2,0.3,0.4,0.5,0.6,0.7,0.8,0.9,1}
**.scheduler.isFCFS = ${true,false}

[MainSimulation]
extends = Default
repeat = 3
**.processGenerator.meanGenerationTime = ${1s,2s,5s,10s}
**.processGenerator.meanProcessDuration = ${1s,5s,25s,125s}
**.processGenerator.generationType = ${"exponential","uniform"}
**.processGenerator.durationType = ${"exponential","uniform"}
**.numCpus = ${1,2,4,8,16}
**.processGenerator.p_cpu_bound = ${0,0.25,0.5,0.75,1.0}
**.scheduler.isFCFS = ${true,false}

[Test]
extends = Default
repeat = 10
**.numCpus = 12
**.processGenerator.meanGenerationTime = ${20ms,50ms}
**.processGenerator.meanProcessDuration = ${100ms,200ms}
**.processGenerator.generationType = "exponential"
**.processGenerator.durationType = "exponential"

[Tes2]
extends = Default
**.processGenerator.generationType = ${"exponential","uniform","constant"}
**.processGenerator.durationType = ${"exponential","uniform","constant"}
