[General]
network = Computer
sim-time-limit = 100s
**.vector-recording = true
seed-set = ${repetition}
num-rngs = 3
repeat = 3

[Default]
**.processGenerator.IOPercentageCPUbound = 0.2
**.processGenerator.IOPercentageIObound = 0.8
**.processGenerator.meanGenerationTime = 0.1s
**.processGenerator.meanProcessDuration = 0.6s

[Sim1]
extends = Default
**.numCpus = ${1,2,3,4,5,6,7,8,9,10,11,12}
**.processGenerator.p_cpu_bound = ${0,0.1,0.2,0.3,0.4,0.5,0.6,0.7,0.8,0.9,1}
**.scheduler.isFCFS = ${true,false}